
**** 12/19/24 11:30:10 ***** PSpice 16.6.0 (October 2012) ***** ID# 0 ********

 ** Profile: "SCHEMATIC1-bias"  [ C:\Cadence\SPB_16.6\tools\capture\adder_fillter_comparator-pspicefiles\schematic1\bias.sim ] 


 ****     CIRCUIT DESCRIPTION


******************************************************************************




** Creating circuit file "bias.cir" 
** WARNING: THIS AUTOMATICALLY GENERATED FILE MAY BE OVERWRITTEN BY SUBSEQUENT SIMULATIONS

*Libraries: 
* Profile Libraries :
* Local Libraries :
* From [PSPICE NETLIST] section of C:\Cadence\SPB_Data\cdssetup\OrCAD_PSpice/16.6.0/PSpice.ini file:
.lib "nom.lib" 

*Analysis directives: 
.TRAN  0 20m 0 
.OPTIONS ADVCONV
.PROBE64 V(alias(*)) I(alias(*)) W(alias(*)) D(alias(*)) NOISE(alias(*)) 
.INC "..\SCHEMATIC1.net" 



**** INCLUDING SCHEMATIC1.net ****
* source ADDER_FILLTER_COMPARATOR
V_ui1         N02437 0  AC 0
+SIN 0 0.1 500 0 0 0
V_V1         N02233 0 12
R_R4         N02994 UI2  10k TC=0,0 
V_V2         N02485 0  
+PULSE -1.6 1.6 0 0.25m 0.25m 0 0.5m
R_R2         N02485 UO1  10k TC=0,0 
R_R1         N02437 UO1  1k TC=0,0 
R_R3         0 N02994  1k TC=0,0 
X_U1A         UO1 N02994 N02233 N03145 UI2 LM324
V_V3         N03145 0 -12
R_R10         UI2 N04084  5.3k  
R_R11         N04084 N04839  5.3k  
C_C1         0 N04839  10n  
C_C2         N04084 UO  10n  
X_U1B         N04839 N05021 N04204 N040404 UO LM324
R_R12         N05021 UO  1k  
R_R13         0 N05021  10k  
V_V7         N040404 0 -12
V_V8         N04204 0 12
V_V10         N07357 0 12
X_U2B         N09295 N09434 N07357 N072914 UO2 LM324
V_V9         N072914 0 -12
X_U2C         UO2 UO1 N08779 0 N08958 LM324
V_V11         N08779 0 15
R_R18         N08958 0  1k  
R_R19         N08958 N08779  10k  
C_C3         UO N09282  10n  
C_C4         N09282 N09295  10n  
R_R20         0 N09295  16k  
R_R21         UO2 N09282  16k  
R_R22         0 N09434  10k  
R_R23         N09434 UO2  1k  
X_U2D         UO1 N11816 N11524 N11862 UI2 LM324
R_R33         N12382 N12314  10k  
V_V14         N11862 0 -12
V_ui2         N11728 0  AC 0
+SIN 0 0.1 500 0 0 0
X_U4C         UO2 UO1 N12314 0 N12382 LM324
V_V13         N11778 0  
+PULSE -1.6 1.6 0 0.25m 0.25m 0 0.5m
V_V12         N11524 0 12
R_R32         N12382 0  1k  
R_R24         N11728 UO1  1k TC=0,0 
R_R26         0 N11816  1k TC=0,0 
R_R27         N11816 UI2  10k TC=0,0 
R_R25         N11778 UO1  10k TC=0,0 
V_V19         N12314 0 15
X_U4D         N13021 N13216 N13440 N13447 N13083 LM324
X_U5A         N13093 N13123 N13454 N13461 UO2 LM324
R_R34         0 N13021  1k  
R_R35         N13021 N13083  10k  
R_R36         UI2 N13216  6.4k  
R_R37         0 N13093  11k  
R_R38         N13123 UO2  10k  
R_R39         N13123 0  1k  
C_C5         0 N13216  10n  
C_C6         N13083 N13093  10n  
V_V20         N13440 0 12
V_V21         N13447 0 -12
V_V22         N13454 0 12
V_V23         N13461 0 -12
R_R40         N14676 N14722  10k  
V_V29         N14840 0 DC 0Vdc AC 1 
R_R41         N14840 N14808  6.4k  
X_U6A         N14742 N14752 N14990 N15000 N14766 LM324
R_R44         N14752 0  10k  
V_V27         N14990 0 12
R_R42         0 N14742  11k  
C_C8         N14722 N14742  10n  
R_R43         N14752 N14766  10k  
V_V28         N15000 0 -12
V_V25         N14970 0 12
R_R45         0 N14676  10k  
X_U5D         N14676 N14808 N14970 N14980 N14722 LM324
C_C7         0 N14808  10n  
V_V26         N14980 0 -12
R_R46         0 N14766  1k  
V_V30         M_UN0001 0 DC 0Vdc AC 1Vac 

**** RESUMING bias.cir ****
.END

**** 12/19/24 11:30:10 ***** PSpice 16.6.0 (October 2012) ***** ID# 0 ********

 ** Profile: "SCHEMATIC1-bias"  [ C:\Cadence\SPB_16.6\tools\capture\adder_fillter_comparator-pspicefiles\schematic1\bias.sim ] 


 ****     Diode MODEL PARAMETERS


******************************************************************************




               X_U1A.dx        X_U1A.dy        X_U1B.dx        X_U1B.dy        
          IS  800.000000E-18  800.000000E-18  800.000000E-18  800.000000E-18 
          RS    1               1.000000E-03    1               1.000000E-03 
         CJO                   10.000000E-12                   10.000000E-12 


               X_U2B.dx        X_U2B.dy        X_U2C.dx        X_U2C.dy        
          IS  800.000000E-18  800.000000E-18  800.000000E-18  800.000000E-18 
          RS    1               1.000000E-03    1               1.000000E-03 
         CJO                   10.000000E-12                   10.000000E-12 


               X_U2D.dx        X_U2D.dy        X_U4C.dx        X_U4C.dy        
          IS  800.000000E-18  800.000000E-18  800.000000E-18  800.000000E-18 
          RS    1               1.000000E-03    1               1.000000E-03 
         CJO                   10.000000E-12                   10.000000E-12 


               X_U4D.dx        X_U4D.dy        X_U5A.dx        X_U5A.dy        
          IS  800.000000E-18  800.000000E-18  800.000000E-18  800.000000E-18 
          RS    1               1.000000E-03    1               1.000000E-03 
         CJO                   10.000000E-12                   10.000000E-12 


               X_U6A.dx        X_U6A.dy        X_U5D.dx        X_U5D.dy        
          IS  800.000000E-18  800.000000E-18  800.000000E-18  800.000000E-18 
          RS    1               1.000000E-03    1               1.000000E-03 
         CJO                   10.000000E-12                   10.000000E-12 


**** 12/19/24 11:30:10 ***** PSpice 16.6.0 (October 2012) ***** ID# 0 ********

 ** Profile: "SCHEMATIC1-bias"  [ C:\Cadence\SPB_16.6\tools\capture\adder_fillter_comparator-pspicefiles\schematic1\bias.sim ] 


 ****     BJT MODEL PARAMETERS


******************************************************************************




               X_U1A.qx        X_U1B.qx        X_U2B.qx        X_U2C.qx        
               PNP             PNP             PNP             PNP             
       LEVEL    1               1               1               1            
          IS  800.000000E-18  800.000000E-18  800.000000E-18  800.000000E-18 
          BF  166.7           166.7           166.7           166.7          
          NF    1               1               1               1            
          BR    1               1               1               1            
          NR    1               1               1               1            
         ISS    0               0               0               0            
          RE    0               0               0               0            
          RC    0               0               0               0            
         CJE    0               0               0               0            
         VJE     .75             .75             .75             .75         
         CJC    0               0               0               0            
         VJC     .75             .75             .75             .75         
         MJC     .33             .33             .33             .33         
        XCJC    1               1               1               1            
         CJS    0               0               0               0            
         VJS     .75             .75             .75             .75         
          KF    0               0               0               0            
          AF    1               1               1               1            
          CN    2.2             2.2             2.2             2.2          
           D     .52             .52             .52             .52         


               X_U2D.qx        X_U4C.qx        X_U4D.qx        X_U5A.qx        
               PNP             PNP             PNP             PNP             
       LEVEL    1               1               1               1            
          IS  800.000000E-18  800.000000E-18  800.000000E-18  800.000000E-18 
          BF  166.7           166.7           166.7           166.7          
          NF    1               1               1               1            
          BR    1               1               1               1            
          NR    1               1               1               1            
         ISS    0               0               0               0            
          RE    0               0               0               0            
          RC    0               0               0               0            
         CJE    0               0               0               0            
         VJE     .75             .75             .75             .75         
         CJC    0               0               0               0            
         VJC     .75             .75             .75             .75         
         MJC     .33             .33             .33             .33         
        XCJC    1               1               1               1            
         CJS    0               0               0               0            
         VJS     .75             .75             .75             .75         
          KF    0               0               0               0            
          AF    1               1               1               1            
          CN    2.2             2.2             2.2             2.2          
           D     .52             .52             .52             .52         


               X_U6A.qx        X_U5D.qx        
               PNP             PNP             
       LEVEL    1               1            
          IS  800.000000E-18  800.000000E-18 
          BF  166.7           166.7          
          NF    1               1            
          BR    1               1            
          NR    1               1            
         ISS    0               0            
          RE    0               0            
          RC    0               0            
         CJE    0               0            
         VJE     .75             .75         
         CJC    0               0            
         VJC     .75             .75         
         MJC     .33             .33         
        XCJC    1               1            
         CJS    0               0            
         VJS     .75             .75         
          KF    0               0            
          AF    1               1            
          CN    2.2             2.2          
           D     .52             .52         


**** 12/19/24 11:30:10 ***** PSpice 16.6.0 (October 2012) ***** ID# 0 ********

 ** Profile: "SCHEMATIC1-bias"  [ C:\Cadence\SPB_16.6\tools\capture\adder_fillter_comparator-pspicefiles\schematic1\bias.sim ] 


 ****     Current Controlled Switch MODEL PARAMETERS


******************************************************************************




               X_U1A.sw2       X_U1A.sw1       X_U1A.sw3       X_U1A.sw4       
         RON    1               1               1               1            
        ROFF   10.000000E+06   10.000000E+06   10.000000E+06   10.000000E+06 
         ION    0              -1.000000E-06   -1.000000E-06    0            
        IOFF   -1.000000E-06    0               0              -1.000000E-06 


               X_U1B.sw2       X_U1B.sw1       X_U1B.sw3       X_U1B.sw4       
         RON    1               1               1               1            
        ROFF   10.000000E+06   10.000000E+06   10.000000E+06   10.000000E+06 
         ION    0              -1.000000E-06   -1.000000E-06    0            
        IOFF   -1.000000E-06    0               0              -1.000000E-06 


               X_U2B.sw2       X_U2B.sw1       X_U2B.sw3       X_U2B.sw4       
         RON    1               1               1               1            
        ROFF   10.000000E+06   10.000000E+06   10.000000E+06   10.000000E+06 
         ION    0              -1.000000E-06   -1.000000E-06    0            
        IOFF   -1.000000E-06    0               0              -1.000000E-06 


               X_U2C.sw2       X_U2C.sw1       X_U2C.sw3       X_U2C.sw4       
         RON    1               1               1               1            
        ROFF   10.000000E+06   10.000000E+06   10.000000E+06   10.000000E+06 
         ION    0              -1.000000E-06   -1.000000E-06    0            
        IOFF   -1.000000E-06    0               0              -1.000000E-06 


               X_U2D.sw2       X_U2D.sw1       X_U2D.sw3       X_U2D.sw4       
         RON    1               1               1               1            
        ROFF   10.000000E+06   10.000000E+06   10.000000E+06   10.000000E+06 
         ION    0              -1.000000E-06   -1.000000E-06    0            
        IOFF   -1.000000E-06    0               0              -1.000000E-06 


               X_U4C.sw2       X_U4C.sw1       X_U4C.sw3       X_U4C.sw4       
         RON    1               1               1               1            
        ROFF   10.000000E+06   10.000000E+06   10.000000E+06   10.000000E+06 
         ION    0              -1.000000E-06   -1.000000E-06    0            
        IOFF   -1.000000E-06    0               0              -1.000000E-06 


               X_U4D.sw2       X_U4D.sw1       X_U4D.sw3       X_U4D.sw4       
         RON    1               1               1               1            
        ROFF   10.000000E+06   10.000000E+06   10.000000E+06   10.000000E+06 
         ION    0              -1.000000E-06   -1.000000E-06    0            
        IOFF   -1.000000E-06    0               0              -1.000000E-06 


               X_U5A.sw2       X_U5A.sw1       X_U5A.sw3       X_U5A.sw4       
         RON    1               1               1               1            
        ROFF   10.000000E+06   10.000000E+06   10.000000E+06   10.000000E+06 
         ION    0              -1.000000E-06   -1.000000E-06    0            
        IOFF   -1.000000E-06    0               0              -1.000000E-06 


               X_U6A.sw2       X_U6A.sw1       X_U6A.sw3       X_U6A.sw4       
         RON    1               1               1               1            
        ROFF   10.000000E+06   10.000000E+06   10.000000E+06   10.000000E+06 
         ION    0              -1.000000E-06   -1.000000E-06    0            
        IOFF   -1.000000E-06    0               0              -1.000000E-06 


               X_U5D.sw2       X_U5D.sw1       X_U5D.sw3       X_U5D.sw4       
         RON    1               1               1               1            
        ROFF   10.000000E+06   10.000000E+06   10.000000E+06   10.000000E+06 
         ION    0              -1.000000E-06   -1.000000E-06    0            
        IOFF   -1.000000E-06    0               0              -1.000000E-06 


**** 12/19/24 11:30:10 ***** PSpice 16.6.0 (October 2012) ***** ID# 0 ********

 ** Profile: "SCHEMATIC1-bias"  [ C:\Cadence\SPB_16.6\tools\capture\adder_fillter_comparator-pspicefiles\schematic1\bias.sim ] 


 ****     INITIAL TRANSIENT SOLUTION       TEMPERATURE =   27.000 DEG C


******************************************************************************



 NODE   VOLTAGE     NODE   VOLTAGE     NODE   VOLTAGE     NODE   VOLTAGE


(   UO)   -1.7597  (  UI2)   -1.6005  (  UO1)    -.1453  (  UO2) 740.7E-06      

(N02233)   12.0000 (N02437)    0.0000 (N02485)   -1.6000 (N02994)    -.1455     

(N03145)  -12.0000 (N04084)   -1.6003 (N04204)   12.0000 (N04839)   -1.6000     

(N05021)   -1.5997 (N07357)   12.0000 (N08779)   15.0000 (N08958)   14.3050     

(N09282) 740.7E-06 (N09295) 717.4E-06 (N09434) 714.1E-06 (N11524)   12.0000     

(N11728)    0.0000 (N11778)   -1.6000 (N11816)    -.1455 (N11862)  -12.0000     

(N12314)   15.0000 (N12382)   14.3050 (N13021)    1.0287 (N13083)   11.3160     

(N13093) 490.9E-06 (N13123) 108.3E-06 (N13216)   -1.5999 (N13440)   12.0000     

(N13447)  -12.0000 (N13454)   12.0000 (N13461)  -12.0000 (N14676) 480.3E-06     

(N14722) 513.4E-06 (N14742) 492.1E-06 (N14752) 299.4E-06 (N14766) 149.3E-06     

(N14808) 287.7E-06 (N14840)    0.0000 (N14970)   12.0000 (N14980)  -12.0000     

(N14990)   12.0000 (N15000)  -12.0000 (N040404)  -12.0000                       

(N072914)  -12.0000                   (X_U1A.6) 303.8E-06                       

(X_U1A.7)   -1.6078                   (X_U1A.8)   -1.6078                       

(X_U1A.9)    0.0000                   (X_U1A.a) 146.8E-06                       

(X_U1A.b)  -12.0000                   (X_U1B.6) 334.0E-06                       

(X_U1B.7)   -1.7677                   (X_U1B.8)   -1.7677                       

(X_U1B.9)    0.0000                   (X_U1B.a) 161.2E-06                       

(X_U1B.b)  -12.0000                   (X_U2B.6)     .0036                       

(X_U2B.7)   -2.0219                   (X_U2B.8)   -2.0219                       

(X_U2B.9)    0.0000                   (X_U2B.a)     .0405                       

(X_U2B.b)  -11.9600                   (X_U2C.6)   -1.5620                       

(X_U2C.7)   16.3360                   (X_U2C.8)   16.3360                       

(X_U2C.9)    0.0000                   (X_U2C.a)   14.9590                       

(X_U2C.b)    -.0406                   (X_U2D.6) 303.8E-06                       

(X_U2D.7)   -1.6078                   (X_U2D.8)   -1.6078                       

(X_U2D.9)    0.0000                   (X_U2D.a) 146.8E-06                       

(X_U2D.b)  -12.0000                   (X_U4C.6)   -1.5620                       

(X_U4C.7)   16.3360                   (X_U4C.8)   16.3360                       

(X_U4C.9)    0.0000                   (X_U4C.a)   14.9590                       

(X_U4C.b)    -.0406                   (X_U4D.6)   -1.5129                       

(X_U4D.7)   13.3460                   (X_U4D.8)   13.3460                       

(X_U4D.9)    0.0000                   (X_U4D.a)   11.9590                       

(X_U4D.b)    -.0406                   (X_U5A.6)    -.0036                       

(X_U5A.7)    2.0234                   (X_U5A.8)    2.0234                       

(X_U5A.9)    0.0000                   (X_U5A.a)   11.9600                       

(X_U5A.b)    -.0405                   (X_U5D.6)-97.08E-09                       

(X_U5D.7) 513.5E-06                   (X_U5D.8) 513.5E-06                       

(X_U5D.9)    0.0000                   (X_U5D.a)   12.0000                       

(X_U5D.b)-1.203E-06                   (X_U6A.6)-30.33E-09                       

(X_U6A.7) 156.0E-06                   (X_U6A.8) 156.0E-06                       

(X_U6A.9)    0.0000                   (X_U6A.a)   12.0000                       

(X_U6A.b)-1.334E-06                   (M_UN0001)    0.0000                      

(X_U1A.10)     .4623                  (X_U1A.11)  -11.9600                      

(X_U1A.12)  -11.9600                  (X_U1A.13)     .4484                      

(X_U1A.14)     .4484                  (X_U1A.53)   10.5000                      

(X_U1A.54)  -11.1780                  (X_U1A.90)    -.1456                      

(X_U1A.91)   40.0000                  (X_U1A.92)  -40.0000                      

(X_U1A.99)    0.0000                  (X_U1B.10)    -.9919                      

(X_U1B.11)  -11.9600                  (X_U1B.12)  -11.9600                      

(X_U1B.13)   -1.0058                  (X_U1B.14)   -1.0059                      

(X_U1B.53)   10.5000                  (X_U1B.54)  -11.1780                      

(X_U1B.90)    -.1600                  (X_U1B.91)   40.0000                      

(X_U1B.92)  -40.0000                  (X_U1B.99)    0.0000                      

(X_U2B.10)     .6084                  (X_U2B.11)  -11.9600                      

(X_U2B.12)  -11.9600                  (X_U2B.13)     .5945                      

(X_U2B.14)     .5945                  (X_U2B.53)   10.5000                      

(X_U2B.54)  -11.1780                  (X_U2B.90)  -40.4520                      

(X_U2B.91)   40.0000                  (X_U2B.92)  -40.0000                      

(X_U2B.99)    0.0000                  (X_U2C.10)     .4956                      

(X_U2C.11)     .0815                  (X_U2C.12) 855.6E-06                      

(X_U2C.13)     .4671                  (X_U2C.14)     .4953                      

(X_U2C.53)   13.5000                  (X_U2C.54)     .8220                      

(X_U2C.90)   40.6120                  (X_U2C.91)   40.0000                      

(X_U2C.92)  -40.0000                  (X_U2C.99)    7.5000                      

(X_U2D.10)     .4623                  (X_U2D.11)  -11.9600                      

(X_U2D.12)  -11.9600                  (X_U2D.13)     .4484                      

(X_U2D.14)     .4484                  (X_U2D.53)   10.5000                      

(X_U2D.54)  -11.1780                  (X_U2D.90)    -.1456                      

(X_U2D.91)   40.0000                  (X_U2D.92)  -40.0000                      

(X_U2D.99)    0.0000                  (X_U4C.10)     .4956                      

(X_U4C.11)     .0815                  (X_U4C.12) 855.6E-06                      

(X_U4C.13)     .4671                  (X_U4C.14)     .4953                      

(X_U4C.53)   13.5000                  (X_U4C.54)     .8220                      

(X_U4C.90)   40.6120                  (X_U4C.91)   40.0000                      

(X_U4C.92)  -40.0000                  (X_U4C.99)    7.5000                      

(X_U4D.10)    -.9600                  (X_U4D.11)  -11.9200                      

(X_U4D.12)  -12.0000                  (X_U4D.13)    -.9880                      

(X_U4D.14)    -.9600                  (X_U4D.53)   10.5000                      

(X_U4D.54)  -11.1780                  (X_U4D.90)   40.6100                      

(X_U4D.91)   40.0000                  (X_U4D.92)  -40.0000                      

(X_U4D.99)    0.0000                  (X_U5A.10)     .6080                      

(X_U5A.11)  -11.9600                  (X_U5A.12)  -11.9610                      

(X_U5A.13)     .5940                  (X_U5A.14)     .5942                      

(X_U5A.53)   10.5000                  (X_U5A.54)  -11.1780                      

(X_U5A.90)   40.4530                  (X_U5A.91)   40.0000                      

(X_U5A.92)  -40.0000                  (X_U5A.99)    0.0000                      

(X_U5D.10)     .6081                  (X_U5D.11)  -11.9600                      

(X_U5D.12)  -11.9600                  (X_U5D.13)     .5941                      

(X_U5D.14)     .5942                  (X_U5D.53)   10.5000                      

(X_U5D.54)  -11.1780                  (X_U5D.90) 3.302E-06                      

(X_U5D.91)   40.0000                  (X_U5D.92)  -40.0000                      

(X_U5D.99)    0.0000                  (X_U6A.10)     .6081                      

(X_U6A.11)  -11.9600                  (X_U6A.12)  -11.9600                      

(X_U6A.13)     .5942                  (X_U6A.14)     .5942                      

(X_U6A.53)   10.5000                  (X_U6A.54)  -11.1780                      

(X_U6A.90) 134.3E-06                  (X_U6A.91)   40.0000                      

(X_U6A.92)  -40.0000                  (X_U6A.99)    0.0000                  




    VOLTAGE SOURCE CURRENTS
    NAME         CURRENT

    V_ui1       -1.453E-04
    V_V1        -2.659E-03
    V_V2         1.455E-04
    V_V3         2.804E-03
    V_V7         2.819E-03
    V_V8        -2.659E-03
    V_V10       -2.659E-03
    V_V9         4.311E-02
    V_V11       -1.597E-02
    V_V14        2.804E-03
    V_ui2       -1.453E-04
    V_V13        1.455E-04
    V_V12       -2.659E-03
    V_V19       -1.597E-02
    V_V20       -3.688E-03
    V_V21        2.659E-03
    V_V22       -4.311E-02
    V_V23        2.659E-03
    V_V29        4.495E-08
    V_V27       -2.659E-03
    V_V28        2.659E-03
    V_V25       -2.659E-03
    V_V26        2.659E-03
    V_V30        0.000E+00
    X_U1A.vb     3.038E-09
    X_U1A.vc     1.210E-11
    X_U1A.ve     9.313E-12
    X_U1A.vlim  -1.456E-04
    X_U1A.vlp   -4.015E-11
    X_U1A.vln   -3.986E-11
    X_U1B.vb     3.340E-09
    X_U1B.vc     1.226E-11
    X_U1B.ve     9.609E-12
    X_U1B.vlim  -1.600E-04
    X_U1B.vlp   -4.016E-11
    X_U1B.vln   -3.984E-11
    X_U2B.vb     3.564E-08
    X_U2B.vc     1.050E-11
    X_U2B.ve     1.137E-11
    X_U2B.vlim  -4.045E-02
    X_U2B.vlp   -8.045E-11
    X_U2B.vln    3.166E-08
    X_U2C.vb    -1.562E-05
    X_U2C.vc    -2.638E-02
    X_U2C.ve     1.340E-11
    X_U2C.vlim   4.061E-02
    X_U2C.vlp    1.523E-05
    X_U2C.vln   -8.062E-11
    X_U2D.vb     3.038E-09
    X_U2D.vc     1.210E-11
    X_U2D.ve     9.313E-12
    X_U2D.vlim  -1.456E-04
    X_U2D.vlp   -4.015E-11
    X_U2D.vln   -3.986E-11
    X_U4C.vb    -1.562E-05
    X_U4C.vc    -2.638E-02
    X_U4C.ve     1.340E-11
    X_U4C.vlim   4.061E-02
    X_U4C.vlp    1.523E-05
    X_U4C.vln   -8.062E-11
    X_U4D.vb    -1.513E-05
    X_U4D.vc    -3.958E-02
    X_U4D.ve     2.223E-11
    X_U4D.vlim   4.061E-02
    X_U4D.vlp    1.404E-05
    X_U4D.vln   -8.061E-11
    X_U5A.vb    -3.574E-08
    X_U5A.vc     1.050E-11
    X_U5A.ve     1.091E-11
    X_U5A.vlim   4.045E-02
    X_U5A.vlp    3.177E-08
    X_U5A.vln   -8.046E-11
    X_U6A.vb    -3.033E-13
    X_U6A.vc     1.050E-11
    X_U6A.ve     1.091E-11
    X_U6A.vlim   1.343E-07
    X_U6A.vlp   -4.000E-11
    X_U6A.vln   -4.000E-11
    X_U5D.vb    -9.708E-13
    X_U5D.vc     1.050E-11
    X_U5D.ve     1.091E-11
    X_U5D.vlim   3.302E-09
    X_U5D.vlp   -4.000E-11
    X_U5D.vln   -4.000E-11

    TOTAL POWER DISSIPATION   2.12E+00  WATTS

Reducing minimum delta to make the circuit converge.
Reducing minimum delta to make the circuit converge.
Reducing minimum delta to make the circuit converge.
Reducing minimum delta to make the circuit converge.
Reducing minimum delta to make the circuit converge.

ERROR(ORPSIM-15138): Convergence problem in transient analysis at Time =  8.249E-03.
         Time step =  32.54E-21, minimum allowable step size =  1.000E-18

  These voltages failed to converge:

    V(X_U1A.6)                =  -429.95uV  \  -431.65uV
    V(X_U1B.6)                =  -341.95uV  \  -158.30uV
    V(X_U1B.90)               =   181.33mV  \   185.00mV
    V(X_U1B.b)                =  -182.53uV  \  -186.20uV
    V(X_U2D.6)                =  -429.95uV  \  -431.65uV
    V(X_U4D.6)                =  -689.14uV  \   -1.023mV
    V(X_U4D.90)               =   -2.796mV  \   820.67uV
    V(X_U4D.a)                =   -297.55V  \     12.00V
    V(X_U4D.b)                =   -309.55V  \   -2.021uV

  These supply currents failed to converge:

    I(X_U1B.egnd)             =  -181.70uA  \  -185.39uA
    I(X_U4D.egnd)             =    17.93uA  \    14.26uA
    I(V_V7)                   =    2.678mA  \    2.659mA
    I(V_V8)                   =   -2.821mA  \   -2.844mA
    I(V_V11)                  =   -18.00mA  \   -15.97mA
    I(V_V19)                  =   -18.00mA  \   -15.97mA
    I(V_V20)                  =  -109.66mA  \   -2.662mA
    I(V_V21)                  =   109.59mA  \    2.658mA
    I(V_V25)                  =   -2.597mA  \   -2.659mA
    I(V_V26)                  =    3.323mA  \    3.259mA
    I(X_U1A.vb)               =   -4.300nA  \   -4.317nA
    I(X_U1A.vc)               =   133.98nA  \   -49.46nA
    I(X_U1A.ve)               =  -135.95nA  \    39.58nA
    I(X_U1B.vb)               =   -3.420nA  \   -1.583nA
    I(X_U1B.vc)               =   -19.54uA  \   -49.14nA
    I(X_U1B.ve)               =    19.54uA  \    44.55nA
    I(X_U1B.vlim)             =   181.33uA  \   185.00uA
    I(X_U2B.vc)               =   -13.38nA  \   -2.013nA
    I(X_U2B.ve)               =    13.34nA  \    1.926nA
    I(X_U2C.vc)               =   -24.34mA  \   -26.37mA
    I(X_U2C.ve)               =    2.031mA  \    13.60pA
    I(X_U2D.vb)               =   -4.300nA  \   -4.317nA
    I(X_U2D.vc)               =   133.98nA  \   -49.46nA
    I(X_U2D.ve)               =  -135.95nA  \    39.58nA
    I(X_U4C.vc)               =   -24.34mA  \   -26.37mA
    I(X_U4C.ve)               =    2.031mA  \    13.60pA
    I(X_U4D.vb)               =   -6.891nA  \   -10.23nA
    I(X_U4D.vc)               =    44.87uA  \    2.003uA
    I(X_U4D.ve)               =   -29.24uA  \   -1.177uA
    I(X_U4D.vlim)             =   -2.796uA  \   820.67nA
    I(X_U5A.vc)               =   -13.38nA  \   -2.013nA
    I(X_U5A.ve)               =    13.35nA  \    1.927nA
    I(X_U6A.vb)               =   -1.763pA  \  -303.31fA
    I(X_U6A.vc)               =   -15.48nA  \    10.21pA
    I(X_U6A.ve)               =    15.50nA  \    10.89pA
    I(X_U5D.vc)               =   -61.56uA  \    22.48pA
    I(X_U5D.ve)               =   -39.95mA  \   -40.01mA

  These devices failed to converge:
    X_U1A.dc  X_U1A.de  X_U1B.dc  X_U1B.de  X_U2B.dc  X_U2B.de  X_U2C.dc  
    X_U2D.dc  X_U2D.de  X_U4C.dc  X_U4D.dc  X_U4D.de  X_U5A.dc  X_U5A.de  
    X_U6A.dc  X_U6A.de  X_U5D.dc  



  Last node voltages tried were:

 NODE   VOLTAGE     NODE   VOLTAGE     NODE   VOLTAGE     NODE   VOLTAGE


(   UO)     .8234  (  UI2)    2.2612  (  UO1)     .2083  (  UO2)     .3064      

(N02233)   12.0000 (N02437)     .0705 (N02485)    1.5853 (N02994)     .2056     

(N03145)  -12.0000 (N04084)    1.5255 (N04204)   12.0000 (N04839)     .7516     

(N05021)     .7486 (N07357)   12.0000 (N08779)   15.0000 (N08958)   14.3050     

(N09282)    1.1936 (N09295)     .7590 (N09434)     .2786 (N11524)   12.0000     

(N11728)     .0705 (N11778)    1.5853 (N11816)     .2056 (N11862)  -12.0000     

(N12314)   15.0000 (N12382)   14.3050 (N13021)     .5009 (N13083)    5.5090     

(N13093)   -5.4629 (N13123)     .0279 (N13216)    1.3111 (N13440)   12.0000     

(N13447)  -12.0000 (N13454)   12.0000 (N13461)  -12.0000 (N14676)   -5.9965     

(N14722)  -11.9940 (N14742) 492.1E-06 (N14752) 299.3E-06 (N14766) 149.2E-06     

(N14808)-77.01E-09 (N14840)    0.0000 (N14970)   12.0000 (N14980)  -12.0000     

(N14990)   12.0000 (N15000)  -12.0000 (N040404)  -12.0000                       

(N072914)  -12.0000                   (X_U1A.6)-430.0E-06                       

(X_U1A.7)    2.2786                   (X_U1A.8)    2.2786                       

(X_U1A.9)    0.0000                   (X_U1A.a)   12.0000                       

(X_U1A.b)-350.2E-06                   (X_U1B.6)-341.9E-06                       

(X_U1B.7)     .8324                   (X_U1B.8)     .8324                       

(X_U1B.9)    0.0000                   (X_U1B.a)   12.0000                       

(X_U1B.b)-182.5E-06                   (X_U2B.6)   -1.4924                       

(X_U2B.7)    2.3371                   (X_U2B.8)    2.3371                       

(X_U2B.9)    0.0000                   (X_U2B.a)   11.9590                       

(X_U2B.b)    -.0406                   (X_U2C.6)   -1.4437                       

(X_U2C.7)   16.3360                   (X_U2C.8)   16.3360                       

(X_U2C.9)    0.0000                   (X_U2C.a)   14.9590                       

(X_U2C.b)    -.0406                   (X_U2D.6)-429.9E-06                       

(X_U2D.7)    2.2786                   (X_U2D.8)    2.2786                       

(X_U2D.9)    0.0000                   (X_U2D.a)   12.0000                       

(X_U2D.b)-350.2E-06                   (X_U4C.6)   -1.4437                       

(X_U4C.7)   16.3360                   (X_U4C.8)   16.3360                       

(X_U4C.9)    0.0000                   (X_U4C.a)   14.9590                       

(X_U4C.b)    -.0406                   (X_U4D.6)-689.1E-06                       

(X_U4D.7)    5.5089                   (X_U4D.8)    5.5089                       

(X_U4D.9)    0.0000                   (X_U4D.a) -297.5500                       

(X_U4D.b) -309.5500                   (X_U5A.6)    1.4822                       

(X_U5A.7)   -1.7242                   (X_U5A.8)   -1.7242                       

(X_U5A.9)    0.0000                   (X_U5A.a)     .0406                       

(X_U5A.b)  -11.9590                   (X_U5D.6)    1.5082                       

(X_U5D.7)  -14.0240                   (X_U5D.8)  -14.0240                       

(X_U5D.9)    0.0000                   (X_U5D.a)     .0406                       

(X_U5D.b)  -11.9590                   (X_U6A.6)-176.3E-09                       

(X_U6A.7) 155.9E-06                   (X_U6A.8) 155.9E-06                       

(X_U6A.9)    0.0000                   (X_U6A.a)   12.0000                       

(X_U6A.b)-1.334E-06                   (M_UN0001)    0.0000                      

(X_U1A.10)     .8146                  (X_U1A.11)  -11.9590                      

(X_U1A.12)  -11.9620                  (X_U1A.13)     .8002                      

(X_U1A.14)     .8012                  (X_U1A.53)   10.5000                      

(X_U1A.54)  -11.1780                  (X_U1A.90)     .3490                      

(X_U1A.91)   40.0000                  (X_U1A.92)  -40.0000                      

(X_U1A.99)    0.0000                  (X_U1B.10)    1.3576                      

(X_U1B.11)  -11.9590                  (X_U1B.12)  -11.9620                      

(X_U1B.13)    1.3432                  (X_U1B.14)    1.3443                      

(X_U1B.53)   10.5000                  (X_U1B.54)  -11.1780                      

(X_U1B.90)     .1813                  (X_U1B.91)   40.0000                      

(X_U1B.92)  -40.0000                  (X_U1B.99)    0.0000                      

(X_U2B.10)     .9180                  (X_U2B.11)  -11.9210                      

(X_U2B.12)  -12.0000                  (X_U2B.13)     .8903                      

(X_U2B.14)     .9180                  (X_U2B.53)   10.5000                      

(X_U2B.54)  -11.1780                  (X_U2B.90)   40.6130                      

(X_U2B.91)   40.0000                  (X_U2B.92)  -40.0000                      

(X_U2B.99)    0.0000                  (X_U2C.10)     .8466                      

(X_U2C.11)     .0775                  (X_U2C.12)     .0047                      

(X_U2C.13)     .8194                  (X_U2C.14)     .8449                      

(X_U2C.53)   13.5000                  (X_U2C.54)     .8220                      

(X_U2C.90)   40.6100                  (X_U2C.91)   40.0000                      

(X_U2C.92)  -40.0000                  (X_U2C.99)    7.5000                      

(X_U2D.10)     .8146                  (X_U2D.11)  -11.9590                      

(X_U2D.12)  -11.9620                  (X_U2D.13)     .8002                      

(X_U2D.14)     .8012                  (X_U2D.53)   10.5000                      

(X_U2D.54)  -11.1780                  (X_U2D.90)     .3490                      

(X_U2D.91)   40.0000                  (X_U2D.92)  -40.0000                      

(X_U2D.99)    0.0000                  (X_U4C.10)     .8466                      

(X_U4C.11)     .0775                  (X_U4C.12)     .0047                      

(X_U4C.13)     .8194                  (X_U4C.14)     .8449                      

(X_U4C.53)   13.5000                  (X_U4C.54)     .8220                      

(X_U4C.90)   40.6100                  (X_U4C.91)   40.0000                      

(X_U4C.92)  -40.0000                  (X_U4C.99)    7.5000                      

(X_U4D.10)    1.1402                  (X_U4D.11)  -12.0000                      

(X_U4D.12)  -11.9210                  (X_U4D.13)    1.1402                      

(X_U4D.14)    1.1126                  (X_U4D.53)   10.5000                      

(X_U4D.54)  -11.1780                  (X_U4D.90)    -.0028                      

(X_U4D.91)   40.0000                  (X_U4D.92)  -40.0000                      

(X_U4D.99)    0.0000                  (X_U5A.10)   -4.8220                      

(X_U5A.11)  -12.0000                  (X_U5A.12)  -11.9190                      

(X_U5A.13)   -4.8220                  (X_U5A.14)   -4.8505                      

(X_U5A.53)   10.5000                  (X_U5A.54)  -11.1780                      

(X_U5A.90)  -40.6130                  (X_U5A.91)   40.0000                      

(X_U5A.92)  -40.0000                  (X_U5A.99)    0.0000                      

(X_U5D.10)   -5.3554                  (X_U5D.11)  -12.0000                      

(X_U5D.12)  -11.9180                  (X_U5D.13)   -5.3554                      

(X_U5D.14)   -5.3840                  (X_U5D.53)   10.5000                      

(X_U5D.54)  -11.1780                  (X_U5D.90)  -40.6100                      

(X_U5D.91)   40.0000                  (X_U5D.92)  -40.0000                      

(X_U5D.99)    0.0000                  (X_U6A.10)     .6081                      

(X_U6A.11)  -11.9600                  (X_U6A.12)  -11.9610                      

(X_U6A.13)     .5942                  (X_U6A.14)     .5942                      

(X_U6A.53)   10.5000                  (X_U6A.54)  -11.1780                      

(X_U6A.90) 134.3E-06                  (X_U6A.91)   40.0000                      

(X_U6A.92)  -40.0000                  (X_U6A.99)    0.0000                  


**** Interrupt ****
